# AG package for MODFLOW-NWT, generated by pygsflow
OPTIONS
IRRIGATION_WELL 36 100
MAXWELLS 36
ETDEMAND
WELLLIST 164
WELLIRRLIST 128
WELLCBC 34
timeseries_well
timeseries_wellet
END
#ag time series
time series
welletall 103
wellall 104
wellet 5 105
end
# ag well list
WELL LIST 
2   66   223    -7240 
3   66   223    -12270
3   61   176    -30680
2   72   172    -30680
3   66   204    -30680
2   82   184    -30680
2   81   169    -30680
2   82   173    -30680
2   80   165    -30680
2   75   151    -30680
2   78   155    -30680
2   82   149    -30680
2   83   171    -30680
3   90   170    -30680
2   85   183    -30680
2   36   138    -30680
2   72   88     -30680
2   74   91     -30680
2   72   102    -30680
2   63   115    -30680
2   68   110    -30680
2   68   115    -30680
2   72   106    -30680
2   67   117    -30680
2   69   124    -30680
2   72   117    -30680
2   64   143    -30680
2   74   129    -30680
2   75   94     -30680
2   81   98     -25330
3   81   98     -3370 
2   47   114    -30680
4   68   56     -13650
2   66   68     -30680
3   28   53     -7570 
4   28   53     -6080 
END 
# ag stress period data
STRESS PERIOD 1
IRRWELL
36 
1 3 0 0
17707 0 0 0.333333
17438 0 0 0.333333
17439 0 0 0.333333
2 3 0 0
17707 0 0 0.333333
17438 0 0 0.333333
17439 0 0 0.333333
3 1 0 0
16316 0 0 1
4 3 0 0
19270 0 0 0.333333
19271 0 0 0.333333
19272 0 0 0.333333
5 1 0 0
17689 0 0 1
6 5 0 0
22510 0 0 0.2
22240 0 0 0.2
22241 0 0 0.2
21971 0 0 0.2
21972 0 0 0.2
7 7 0 0
21958 0 0 0.142857
21959 0 0 0.142857
21960 0 0 0.142857
21689 0 0 0.142857
21690 0 0 0.142857
21691 0 0 0.142857
21421 0 0 0.142857
8 18 0 0
22231 0 0 0.055556
22232 0 0 0.055556
22233 0 0 0.055556
22234 0 0 0.055556
22235 0 0 0.055556
21961 0 0 0.055556
21962 0 0 0.055556
21963 0 0 0.055556
21964 0 0 0.055556
21965 0 0 0.055556
21966 0 0 0.055556
21692 0 0 0.055556
21693 0 0 0.055556
21695 0 0 0.055556
21696 0 0 0.055556
21422 0 0 0.055556
21423 0 0 0.055556
21424 0 0 0.055556
9 1 0 0
21416 0 0 1
10 31 0 0
20596 0 0 0.032258
20597 0 0 0.032258
20598 0 0 0.032258
20321 0 0 0.032258
20322 0 0 0.032258
20323 0 0 0.032258
20324 0 0 0.032258
20325 0 0 0.032258
20326 0 0 0.032258
20327 0 0 0.032258
20328 0 0 0.032258
20329 0 0 0.032258
20051 0 0 0.032258
20052 0 0 0.032258
20053 0 0 0.032258
20054 0 0 0.032258
20055 0 0 0.032258
20056 0 0 0.032258
20057 0 0 0.032258
20058 0 0 0.032258
19782 0 0 0.032258
19783 0 0 0.032258
19784 0 0 0.032258
19785 0 0 0.032258
19786 0 0 0.032258
19788 0 0 0.032258
19513 0 0 0.032258
19514 0 0 0.032258
19515 0 0 0.032258
19516 0 0 0.032258
19517 0 0 0.032258
11 9 0 0
21132 0 0 0.111111
21133 0 0 0.111111
21134 0 0 0.111111
21135 0 0 0.111111
21136 0 0 0.111111
20863 0 0 0.111111
20864 0 0 0.111111
20865 0 0 0.111111
20866 0 0 0.111111
12 2 0 0
21668 0 0 0.5
21131 0 0 0.5
13 5 0 0
22767 0 0 0.2
22498 0 0 0.2
22499 0 0 0.2
22500 0 0 0.2
22229 0 0 0.2
14 2 0 0
24111 0 0 0.5
23842 0 0 0.5
15 6 0 0
23048 0 0 0.166667
22777 0 0 0.166667
22778 0 0 0.166667
22779 0 0 0.166667
22508 0 0 0.166667
22509 0 0 0.166667
16 1 0 0
9554 0 0 1
17 39 0 0
19718 0 0 0.025641
19722 0 0 0.025641
19723 0 0 0.025641
19724 0 0 0.025641
19725 0 0 0.025641
19726 0 0 0.025641
19449 0 0 0.025641
19450 0 0 0.025641
19451 0 0 0.025641
19452 0 0 0.025641
19453 0 0 0.025641
19454 0 0 0.025641
19455 0 0 0.025641
19456 0 0 0.025641
19179 0 0 0.025641
19180 0 0 0.025641
19181 0 0 0.025641
19182 0 0 0.025641
19183 0 0 0.025641
19184 0 0 0.025641
19185 0 0 0.025641
19186 0 0 0.025641
19187 0 0 0.025641
18911 0 0 0.025641
18912 0 0 0.025641
18913 0 0 0.025641
18914 0 0 0.025641
18915 0 0 0.025641
18916 0 0 0.025641
18917 0 0 0.025641
18918 0 0 0.025641
18642 0 0 0.025641
18643 0 0 0.025641
18644 0 0 0.025641
18645 0 0 0.025641
18646 0 0 0.025641
18647 0 0 0.025641
18648 0 0 0.025641
18649 0 0 0.025641
18 1 0 0
19996 0 0 1
19 12 0 0
19465 0 0 0.083333
19466 0 0 0.083333
19467 0 0 0.083333
19468 0 0 0.083333
19196 0 0 0.083333
19197 0 0 0.083333
19198 0 0 0.083333
19199 0 0 0.083333
19200 0 0 0.083333
18927 0 0 0.083333
18928 0 0 0.083333
18931 0 0 0.083333
20 16 0 0
18404 0 0 0.0625
18135 0 0 0.0625
18136 0 0 0.0625
18137 0 0 0.0625
17866 0 0 0.0625
17867 0 0 0.0625
17868 0 0 0.0625
17869 0 0 0.0625
17598 0 0 0.0625
17599 0 0 0.0625
17600 0 0 0.0625
17329 0 0 0.0625
17330 0 0 0.0625
17061 0 0 0.0625
16792 0 0 0.0625
16523 0 0 0.0625
21 20 0 0
18669 0 0 0.05
18670 0 0 0.05
18398 0 0 0.05
18399 0 0 0.05
18400 0 0 0.05
18401 0 0 0.05
18402 0 0 0.05
18130 0 0 0.05
18131 0 0 0.05
18132 0 0 0.05
18133 0 0 0.05
17863 0 0 0.05
17864 0 0 0.05
17593 0 0 0.05
17594 0 0 0.05
17595 0 0 0.05
17325 0 0 0.05
18128 0 0 0.05
18129 0 0 0.05
17860 0 0 0.05
22 1 0 0
18138 0 0 1
23 9 0 0
19740 0 0 0.111111
19741 0 0 0.111111
19742 0 0 0.111111
19743 0 0 0.111111
19744 0 0 0.111111
19474 0 0 0.111111
19475 0 0 0.111111
19205 0 0 0.111111
19206 0 0 0.111111
24 6 0 0
17870 0 0 0.166667
17871 0 0 0.166667
17872 0 0 0.166667
17601 0 0 0.166667
17602 0 0 0.166667
17333 0 0 0.166667
25 9 0 0
18684 0 0 0.111111
18685 0 0 0.111111
18413 0 0 0.111111
18414 0 0 0.111111
18415 0 0 0.111111
18416 0 0 0.111111
18417 0 0 0.111111
17607 0 0 0.111111
17608 0 0 0.111111
26 3 0 0
19216 0 0 0.333333
18947 0 0 0.333333
18948 0 0 0.333333
27 68 0 0
20046 0 0 0.014706
20047 0 0 0.014706
19773 0 0 0.014706
19774 0 0 0.014706
19775 0 0 0.014706
19776 0 0 0.014706
19777 0 0 0.014706
19778 0 0 0.014706
19779 0 0 0.014706
19780 0 0 0.014706
19505 0 0 0.014706
19506 0 0 0.014706
19507 0 0 0.014706
19508 0 0 0.014706
19509 0 0 0.014706
19510 0 0 0.014706
19511 0 0 0.014706
19512 0 0 0.014706
19237 0 0 0.014706
19238 0 0 0.014706
19239 0 0 0.014706
19240 0 0 0.014706
19241 0 0 0.014706
19242 0 0 0.014706
19243 0 0 0.014706
19245 0 0 0.014706
18968 0 0 0.014706
18969 0 0 0.014706
18970 0 0 0.014706
18971 0 0 0.014706
18972 0 0 0.014706
18973 0 0 0.014706
18975 0 0 0.014706
18976 0 0 0.014706
18702 0 0 0.014706
18703 0 0 0.014706
18704 0 0 0.014706
18705 0 0 0.014706
18706 0 0 0.014706
18707 0 0 0.014706
18708 0 0 0.014706
18433 0 0 0.014706
18434 0 0 0.014706
18435 0 0 0.014706
18437 0 0 0.014706
18438 0 0 0.014706
18165 0 0 0.014706
18166 0 0 0.014706
18167 0 0 0.014706
18168 0 0 0.014706
17895 0 0 0.014706
17896 0 0 0.014706
17897 0 0 0.014706
17898 0 0 0.014706
17899 0 0 0.014706
17625 0 0 0.014706
17626 0 0 0.014706
17627 0 0 0.014706
17628 0 0 0.014706
17629 0 0 0.014706
17356 0 0 0.014706
17357 0 0 0.014706
17358 0 0 0.014706
17359 0 0 0.014706
17360 0 0 0.014706
17089 0 0 0.014706
17090 0 0 0.014706
16820 0 0 0.014706
28 1 0 0
19766 0 0 1
29 1 0 0
19999 0 0 1
30 6 0 0
20809 0 0 0.166667
20810 0 0 0.166667
20811 0 0 0.166667
20541 0 0 0.166667
20542 0 0 0.166667
20274 0 0 0.166667
31 6 0 0
20809 0 0 0.166667
20810 0 0 0.166667
20811 0 0 0.166667
20541 0 0 0.166667
20542 0 0 0.166667
20274 0 0 0.166667
32 1 0 0
12488 0 0 1
33 3 0 0
18079 0 0 0.333333
17806 0 0 0.333333
17807 0 0 0.333333
34 100 0 0
19710 0 0 0.01
19440 0 0 0.01
19441 0 0 0.01
19445 0 0 0.01
19446 0 0 0.01
19447 0 0 0.01
19170 0 0 0.01
19171 0 0 0.01
19172 0 0 0.01
19176 0 0 0.01
19177 0 0 0.01
19178 0 0 0.01
18898 0 0 0.01
18899 0 0 0.01
18900 0 0 0.01
18901 0 0 0.01
18902 0 0 0.01
18903 0 0 0.01
18906 0 0 0.01
18907 0 0 0.01
18908 0 0 0.01
18909 0 0 0.01
18627 0 0 0.01
18629 0 0 0.01
18630 0 0 0.01
18631 0 0 0.01
18632 0 0 0.01
18633 0 0 0.01
18634 0 0 0.01
18636 0 0 0.01
18637 0 0 0.01
18638 0 0 0.01
18639 0 0 0.01
18640 0 0 0.01
18357 0 0 0.01
18358 0 0 0.01
18359 0 0 0.01
18360 0 0 0.01
18361 0 0 0.01
18362 0 0 0.01
18363 0 0 0.01
18364 0 0 0.01
18365 0 0 0.01
18366 0 0 0.01
18367 0 0 0.01
18368 0 0 0.01
18369 0 0 0.01
18370 0 0 0.01
18087 0 0 0.01
18088 0 0 0.01
18089 0 0 0.01
18090 0 0 0.01
18091 0 0 0.01
18092 0 0 0.01
18093 0 0 0.01
18094 0 0 0.01
18095 0 0 0.01
18096 0 0 0.01
18097 0 0 0.01
18098 0 0 0.01
17815 0 0 0.01
17817 0 0 0.01
17818 0 0 0.01
17819 0 0 0.01
17820 0 0 0.01
17821 0 0 0.01
17822 0 0 0.01
17823 0 0 0.01
17824 0 0 0.01
17825 0 0 0.01
17826 0 0 0.01
17827 0 0 0.01
17828 0 0 0.01
17545 0 0 0.01
17546 0 0 0.01
17547 0 0 0.01
17548 0 0 0.01
17549 0 0 0.01
17550 0 0 0.01
17551 0 0 0.01
17557 0 0 0.01
17277 0 0 0.01
17278 0 0 0.01
17279 0 0 0.01
17280 0 0 0.01
17281 0 0 0.01
17282 0 0 0.01
17283 0 0 0.01
17284 0 0 0.01
17285 0 0 0.01
17286 0 0 0.01
17287 0 0 0.01
17010 0 0 0.01
17011 0 0 0.01
17012 0 0 0.01
17013 0 0 0.01
17014 0 0 0.01
17015 0 0 0.01
17016 0 0 0.01
16744 0 0 0.01
35 2 0 0
7316 0 0 0.5
6239 0 0 0.5
36 2 0 0
7316 0 0 0.5
6239 0 0 0.5
END
STRESS PERIOD 2
IRRWELL 
-1
END 
STRESS PERIOD 3
IRRWELL 
-1  
END 
STRESS PERIOD 4
IRRWELL 
-1  
END 
STRESS PERIOD 5
IRRWELL 
-1  
END 
STRESS PERIOD 6
IRRWELL 
-1  
END 
STRESS PERIOD 7
IRRWELL 
-1  
END 
STRESS PERIOD 8
IRRWELL 
-1  
END 
STRESS PERIOD 9
IRRWELL 
-1  
END 
STRESS PERIOD 10
IRRWELL 
-1  
END 
STRESS PERIOD 11
IRRWELL 
-1  
END 
STRESS PERIOD 12
IRRWELL 
-1  
END 
STRESS PERIOD 13
IRRWELL 
-1  
END 
STRESS PERIOD 14
IRRWELL 
-1  
END 
STRESS PERIOD 15
IRRWELL 
-1  
END 
STRESS PERIOD 16
IRRWELL 
-1 
END 
STRESS PERIOD 17
IRRWELL 
-1 
END 
STRESS PERIOD 18
IRRWELL 
-1 
END 
STRESS PERIOD 19
IRRWELL 
-1 
END 
STRESS PERIOD 20
IRRWELL 
-1 
END 
STRESS PERIOD 21
IRRWELL 
-1 
END 
STRESS PERIOD 22
IRRWELL 
-1 
END 
STRESS PERIOD 23
IRRWELL 
-1 
END 
STRESS PERIOD 24
IRRWELL 
-1 
END 
STRESS PERIOD 25
IRRWELL 
-1 
END 
STRESS PERIOD 26
IRRWELL 
-1 
END 
STRESS PERIOD 27
IRRWELL 
-1 
END 
STRESS PERIOD 28
IRRWELL 
-1 
END 
STRESS PERIOD 29
IRRWELL 
-1 
END 
STRESS PERIOD 30
IRRWELL 
-1 
END 
STRESS PERIOD 31
IRRWELL 
-1 
END 
STRESS PERIOD 32
IRRWELL 
-1 
END 
STRESS PERIOD 33
IRRWELL 
-1 
END 
STRESS PERIOD 34
IRRWELL 
-1 
END 
STRESS PERIOD 35
IRRWELL 
-1 
END 
STRESS PERIOD 36
IRRWELL 
-1 
END 
STRESS PERIOD 37
IRRWELL 
-1 
END 
STRESS PERIOD 38
IRRWELL 
-1 
END 
STRESS PERIOD 39
IRRWELL 
-1 
END 
STRESS PERIOD 40
IRRWELL 
-1 
END 
STRESS PERIOD 41
IRRWELL 
-1 
END 
STRESS PERIOD 42
IRRWELL 
-1 
END 
STRESS PERIOD 43
IRRWELL 
-1 
END 
STRESS PERIOD 44
IRRWELL 
-1 
END 
STRESS PERIOD 45
IRRWELL 
-1 
END 
STRESS PERIOD 46
IRRWELL 
-1 
END 
STRESS PERIOD 47
IRRWELL 
-1 
END 
STRESS PERIOD 48
IRRWELL 
-1 
END 
STRESS PERIOD 49
IRRWELL 
-1 
END 
STRESS PERIOD 50
IRRWELL 
-1 
END 
STRESS PERIOD 51
IRRWELL 
-1 
END 
STRESS PERIOD 52
IRRWELL 
-1 
END 
STRESS PERIOD 53
IRRWELL 
-1 
END 
STRESS PERIOD 54
IRRWELL 
-1 
END 
STRESS PERIOD 55
IRRWELL 
-1 
END 
STRESS PERIOD 56
IRRWELL 
-1 
END 
STRESS PERIOD 57
IRRWELL 
-1 
END 
STRESS PERIOD 58
IRRWELL 
-1 
END 
STRESS PERIOD 59
IRRWELL 
-1 
END 
STRESS PERIOD 60
IRRWELL 
-1 
END 
STRESS PERIOD 61
IRRWELL 
-1 
END 
STRESS PERIOD 62
IRRWELL 
-1 
END 
STRESS PERIOD 63
IRRWELL 
-1 
END 
STRESS PERIOD 64
IRRWELL 
-1 
END 
STRESS PERIOD 65
IRRWELL 
-1 
END 
STRESS PERIOD 66
IRRWELL 
-1 
END 
STRESS PERIOD 67
IRRWELL 
-1 
END 
STRESS PERIOD 68
IRRWELL 
-1 
END 
STRESS PERIOD 69
IRRWELL 
-1 
END 
STRESS PERIOD 70
IRRWELL 
-1 
END 
STRESS PERIOD 71
IRRWELL 
-1 
END 
STRESS PERIOD 72
IRRWELL 
-1 
END 
STRESS PERIOD 73
IRRWELL 
-1 
END 
STRESS PERIOD 74
IRRWELL 
-1 
END 
STRESS PERIOD 75
IRRWELL 
-1 
END 
STRESS PERIOD 76
IRRWELL 
-1 
END 
STRESS PERIOD 77
IRRWELL 
-1 
END 
STRESS PERIOD 78
IRRWELL 
-1 
END 
STRESS PERIOD 79
IRRWELL 
-1 
END 
STRESS PERIOD 80
IRRWELL 
-1 
END 
STRESS PERIOD 81
IRRWELL 
-1 
END 
STRESS PERIOD 82
IRRWELL 
-1 
END 
STRESS PERIOD 83
IRRWELL 
-1 
END 
STRESS PERIOD 84
IRRWELL 
-1 
END 
STRESS PERIOD 85
IRRWELL 
-1 
END 
STRESS PERIOD 86
IRRWELL 
-1 
END 
STRESS PERIOD 87
IRRWELL 
-1 
END 
STRESS PERIOD 88
IRRWELL 
-1 
END 
STRESS PERIOD 89
IRRWELL 
-1 
END 
STRESS PERIOD 90
IRRWELL 
-1 
END 
STRESS PERIOD 91
IRRWELL 
-1 
END 
STRESS PERIOD 92
IRRWELL 
-1 
END 
STRESS PERIOD 93
IRRWELL 
-1 
END 
STRESS PERIOD 94
IRRWELL 
-1 
END 
STRESS PERIOD 95
IRRWELL 
-1 
END 
STRESS PERIOD 96
IRRWELL 
-1 
END 
STRESS PERIOD 97
IRRWELL 
-1 
END 
STRESS PERIOD 98
IRRWELL 
-1 
END 
STRESS PERIOD 99
IRRWELL 
-1 
END 
STRESS PERIOD 100
IRRWELL 
-1 
END 
STRESS PERIOD 101
IRRWELL 
-1 
END 
STRESS PERIOD 102
IRRWELL 
-1 
END 
STRESS PERIOD 103
IRRWELL 
-1 
END 
STRESS PERIOD 104
IRRWELL 
-1 
END 
STRESS PERIOD 105
IRRWELL 
-1 
END 
STRESS PERIOD 106
IRRWELL 
-1 
END 
STRESS PERIOD 107
IRRWELL 
-1 
END 
STRESS PERIOD 108
IRRWELL 
-1 
END 
STRESS PERIOD 109
IRRWELL 
-1 
END 
STRESS PERIOD 110
IRRWELL 
-1 
END 
STRESS PERIOD 111
IRRWELL 
-1 
END 
STRESS PERIOD 112
IRRWELL 
-1 
END 
STRESS PERIOD 113
IRRWELL 
-1 
END 
STRESS PERIOD 114
IRRWELL 
-1 
END 
STRESS PERIOD 115
IRRWELL 
-1 
END 
STRESS PERIOD 116
IRRWELL 
-1 
END 
STRESS PERIOD 117
IRRWELL 
-1 
END 
STRESS PERIOD 118
IRRWELL 
-1 
END 
STRESS PERIOD 119
IRRWELL 
-1 
END 
STRESS PERIOD 120
IRRWELL 
-1 
END 
STRESS PERIOD 121
IRRWELL 
-1 
END 
STRESS PERIOD 122
IRRWELL 
-1 
END 
STRESS PERIOD 123
IRRWELL 
-1 
END 
STRESS PERIOD 124
IRRWELL 
-1 
END 
STRESS PERIOD 125
IRRWELL 
-1 
END 
STRESS PERIOD 126
IRRWELL 
-1 
END 
STRESS PERIOD 127
IRRWELL 
-1 
END 
STRESS PERIOD 128
IRRWELL 
-1 
END 
STRESS PERIOD 129
IRRWELL 
-1 
END 
STRESS PERIOD 130
IRRWELL 
-1 
END 
STRESS PERIOD 131
IRRWELL 
-1 
END 
STRESS PERIOD 132
IRRWELL 
-1 
END 
STRESS PERIOD 133
IRRWELL 
-1 
END 
STRESS PERIOD 134
IRRWELL 
-1 
END 
STRESS PERIOD 135
IRRWELL 
-1 
END 
STRESS PERIOD 136
IRRWELL 
-1 
END 
STRESS PERIOD 137
IRRWELL 
-1 
END 
STRESS PERIOD 138
IRRWELL 
-1 
END 
STRESS PERIOD 139
IRRWELL 
-1 
END 
STRESS PERIOD 140
IRRWELL 
-1 
END 
STRESS PERIOD 141
IRRWELL 
-1 
END 
STRESS PERIOD 142
IRRWELL 
-1 
END 
STRESS PERIOD 143
IRRWELL 
-1 
END 
STRESS PERIOD 144
IRRWELL 
-1 
END 
STRESS PERIOD 145
IRRWELL 
-1 
END 
STRESS PERIOD 146
IRRWELL 
-1 
END 
STRESS PERIOD 147
IRRWELL 
-1 
END 
STRESS PERIOD 148
IRRWELL 
-1 
END 
STRESS PERIOD 149
IRRWELL 
-1 
END 
STRESS PERIOD 150
IRRWELL 
-1 
END 
STRESS PERIOD 151
IRRWELL 
-1 
END 
STRESS PERIOD 152
IRRWELL 
-1 
END 
STRESS PERIOD 153
IRRWELL 
-1 
END 
STRESS PERIOD 154
IRRWELL 
-1 
END 
STRESS PERIOD 155
IRRWELL 
-1 
END 
STRESS PERIOD 156
IRRWELL 
-1 
END 
STRESS PERIOD 157
IRRWELL 
-1 
END 
STRESS PERIOD 158
IRRWELL 
-1 
END 
STRESS PERIOD 159
IRRWELL 
-1 
END 
STRESS PERIOD 160
IRRWELL 
-1 
END 
STRESS PERIOD 161
IRRWELL 
-1 
END 
STRESS PERIOD 162
IRRWELL 
-1 
END 
STRESS PERIOD 163
IRRWELL 
-1 
END 
STRESS PERIOD 164
IRRWELL 
-1 
END 
STRESS PERIOD 165
IRRWELL 
-1 
END 
STRESS PERIOD 166
IRRWELL 
-1 
END 
STRESS PERIOD 167
IRRWELL 
-1 
END 
STRESS PERIOD 168
IRRWELL 
-1 
END 
STRESS PERIOD 169
IRRWELL 
-1 
END 
STRESS PERIOD 170
IRRWELL 
-1 
END 
STRESS PERIOD 171
IRRWELL 
-1 
END 
STRESS PERIOD 172
IRRWELL 
-1 
END 
STRESS PERIOD 173
IRRWELL 
-1 
END 
STRESS PERIOD 174
IRRWELL 
-1 
END 
STRESS PERIOD 175
IRRWELL 
-1 
END 
STRESS PERIOD 176
IRRWELL 
-1 
END 
STRESS PERIOD 177
IRRWELL 
-1 
END 
STRESS PERIOD 178
IRRWELL 
-1 
END 
STRESS PERIOD 179
IRRWELL 
-1 
END 
STRESS PERIOD 180
IRRWELL 
-1 
END 
STRESS PERIOD 181
IRRWELL 
-1 
END 
STRESS PERIOD 182
IRRWELL 
-1 
END 
STRESS PERIOD 183
IRRWELL 
-1 
END 
STRESS PERIOD 184
IRRWELL 
-1 
END 
STRESS PERIOD 185
IRRWELL 
-1 
END 
STRESS PERIOD 186
IRRWELL 
-1 
END 
STRESS PERIOD 187
IRRWELL 
-1 
END 
STRESS PERIOD 188
IRRWELL 
-1 
END 
STRESS PERIOD 189
IRRWELL 
-1 
END 
STRESS PERIOD 190
IRRWELL 
-1 
END 
STRESS PERIOD 191
IRRWELL 
-1 
END 
STRESS PERIOD 192
IRRWELL 
-1 
END 
STRESS PERIOD 193
IRRWELL 
0  
END 
STRESS PERIOD 194
IRRWELL 
0  
END 
STRESS PERIOD 195
IRRWELL 
0  
END 
STRESS PERIOD 196
IRRWELL 
0  
END 
STRESS PERIOD 197
IRRWELL 
0  
END 
STRESS PERIOD 198
IRRWELL 
0  
END 
STRESS PERIOD 199
IRRWELL 
0  
END 
STRESS PERIOD 200
IRRWELL 
0  
END 
STRESS PERIOD 201
IRRWELL 
0  
END 
STRESS PERIOD 202
IRRWELL 
0  
END 
STRESS PERIOD 203
IRRWELL 
0  
END 
STRESS PERIOD 204
IRRWELL 
0  
END 
STRESS PERIOD 205
IRRWELL 
0  
END 
STRESS PERIOD 206
IRRWELL 
0  
END 
STRESS PERIOD 207
IRRWELL 
0  
END 
STRESS PERIOD 208
IRRWELL 
0  
END 
STRESS PERIOD 209
IRRWELL 
0  
END 
STRESS PERIOD 210
IRRWELL 
0  
END 
STRESS PERIOD 211
IRRWELL 
0  
END 
STRESS PERIOD 212
IRRWELL 
0  
END 
STRESS PERIOD 213
IRRWELL 
0  
END 
STRESS PERIOD 214
IRRWELL 
0  
END 
STRESS PERIOD 215
IRRWELL 
0  
END 
STRESS PERIOD 216
IRRWELL 
0  
END 
STRESS PERIOD 217
IRRWELL 
0  
END 
STRESS PERIOD 218
IRRWELL 
0  
END 
STRESS PERIOD 219
IRRWELL 
0  
END 
STRESS PERIOD 220
IRRWELL 
0  
END 
STRESS PERIOD 221
IRRWELL 
0  
END 
STRESS PERIOD 222
IRRWELL 
0  
END 
STRESS PERIOD 223
IRRWELL 
0  
END 
STRESS PERIOD 224
IRRWELL 
0  
END 
STRESS PERIOD 225
IRRWELL 
0  
END 
STRESS PERIOD 226
IRRWELL 
0  
END 
STRESS PERIOD 227
IRRWELL 
0  
END 
STRESS PERIOD 228
IRRWELL 
0  
END 
STRESS PERIOD 229
IRRWELL 
0  
END 
STRESS PERIOD 230
IRRWELL 
0  
END 
STRESS PERIOD 231
IRRWELL 
0  
END 
STRESS PERIOD 232
IRRWELL 
0  
END 
STRESS PERIOD 233
IRRWELL 
0  
END 
STRESS PERIOD 234
IRRWELL 
0  
END 
STRESS PERIOD 235
IRRWELL 
0  
END 
STRESS PERIOD 236
IRRWELL 
0  
END 
STRESS PERIOD 237
IRRWELL 
0  
END 
STRESS PERIOD 238
IRRWELL 
0  
END 
STRESS PERIOD 239
IRRWELL 
0  
END 
STRESS PERIOD 240
IRRWELL 
0  
END 
STRESS PERIOD 241
IRRWELL 
0  
END 
STRESS PERIOD 242
IRRWELL 
0  
END 
STRESS PERIOD 243
IRRWELL 
0  
END 
STRESS PERIOD 244
IRRWELL 
0  
END 
STRESS PERIOD 245
IRRWELL 
0  
END 
STRESS PERIOD 246
IRRWELL 
0  
END 
STRESS PERIOD 247
IRRWELL 
0  
END 
STRESS PERIOD 248
IRRWELL 
0  
END 
STRESS PERIOD 249
IRRWELL 
0  
END 
STRESS PERIOD 250
IRRWELL 
0  
END 
STRESS PERIOD 251
IRRWELL 
0  
END 
STRESS PERIOD 252
IRRWELL 
0  
END 
STRESS PERIOD 253
IRRWELL 
0  
END 
STRESS PERIOD 254
IRRWELL 
0  
END 
STRESS PERIOD 255
IRRWELL 
0  
END 
STRESS PERIOD 256
IRRWELL 
0  
END 
STRESS PERIOD 257
IRRWELL 
0  
END 
STRESS PERIOD 258
IRRWELL 
0  
END 
STRESS PERIOD 259
IRRWELL 
0  
END 
STRESS PERIOD 260
IRRWELL 
0  
END 
STRESS PERIOD 261
IRRWELL 
0  
END 
STRESS PERIOD 262
IRRWELL 
0  
END 
STRESS PERIOD 263
IRRWELL 
0  
END 
STRESS PERIOD 264
IRRWELL 
0  
END 
STRESS PERIOD 265
IRRWELL 
0  
END 
STRESS PERIOD 266
IRRWELL 
0  
END 
STRESS PERIOD 267
IRRWELL 
0  
END 
STRESS PERIOD 268
IRRWELL 
0  
END 
STRESS PERIOD 269
IRRWELL 
0  
END 
STRESS PERIOD 270
IRRWELL 
0  
END 
STRESS PERIOD 271
IRRWELL 
0  
END 
STRESS PERIOD 272
IRRWELL 
0  
END 
STRESS PERIOD 273
IRRWELL 
0  
END 
STRESS PERIOD 274
IRRWELL 
0  
END 
STRESS PERIOD 275
IRRWELL 
0  
END 
STRESS PERIOD 276
IRRWELL 
0  
END 
STRESS PERIOD 277
IRRWELL 
0  
END 
STRESS PERIOD 278
IRRWELL 
0  
END 
STRESS PERIOD 279
IRRWELL 
0  
END 
STRESS PERIOD 280
IRRWELL 
0  
END 
STRESS PERIOD 281
IRRWELL 
0  
END 
STRESS PERIOD 282
IRRWELL 
0  
END 
STRESS PERIOD 283
IRRWELL 
0  
END 
STRESS PERIOD 284
IRRWELL 
0  
END 
STRESS PERIOD 285
IRRWELL 
0  
END 
STRESS PERIOD 286
IRRWELL 
0  
END 
STRESS PERIOD 287
IRRWELL 
0  
END 
STRESS PERIOD 288
IRRWELL 
0  
END 
STRESS PERIOD 289
IRRWELL 
0  
END 
STRESS PERIOD 290
IRRWELL 
0  
END 
STRESS PERIOD 291
IRRWELL 
0  
END 
STRESS PERIOD 292
IRRWELL 
0  
END 
STRESS PERIOD 293
IRRWELL 
0  
END 
STRESS PERIOD 294
IRRWELL 
0  
END 
STRESS PERIOD 295
IRRWELL 
0  
END 
STRESS PERIOD 296
IRRWELL 
0  
END 
STRESS PERIOD 297
IRRWELL 
0  
END 
STRESS PERIOD 298
IRRWELL 
0  
END 
STRESS PERIOD 299
IRRWELL 
0  
END 
STRESS PERIOD 300
IRRWELL 
0  
END 
STRESS PERIOD 301
IRRWELL 
0  
END 
STRESS PERIOD 302
IRRWELL 
0  
END 
STRESS PERIOD 303
IRRWELL 
0  
END 
STRESS PERIOD 304
IRRWELL 
0  
END 
STRESS PERIOD 305
IRRWELL 
0  
END 
STRESS PERIOD 306
IRRWELL 
0  
END 
STRESS PERIOD 307
IRRWELL 
0  
END 
STRESS PERIOD 308
IRRWELL 
0  
END 
STRESS PERIOD 309
IRRWELL 
0  
END 
STRESS PERIOD 310
IRRWELL 
0  
END 
STRESS PERIOD 311
IRRWELL 
0  
END 
STRESS PERIOD 312
IRRWELL 
0  
END 
STRESS PERIOD 313
IRRWELL 
0  
END 
STRESS PERIOD 314
IRRWELL 
0  
END 
STRESS PERIOD 315
IRRWELL 
0  
END 
STRESS PERIOD 316
IRRWELL 
0  
END 
STRESS PERIOD 317
IRRWELL 
0  
END 
STRESS PERIOD 318
IRRWELL 
0  
END 
STRESS PERIOD 319
IRRWELL 
0  
END 
STRESS PERIOD 320
IRRWELL 
0  
END 
STRESS PERIOD 321
IRRWELL 
0  
END 
STRESS PERIOD 322
IRRWELL 
0  
END 
STRESS PERIOD 323
IRRWELL 
0  
END 
STRESS PERIOD 324
IRRWELL 
0  
END 
STRESS PERIOD 325
IRRWELL 
0  
END 
STRESS PERIOD 326
IRRWELL 
0  
END 
STRESS PERIOD 327
IRRWELL 
0  
END 
STRESS PERIOD 328
IRRWELL 
0  
END 
STRESS PERIOD 329
IRRWELL 
0  
END 
STRESS PERIOD 330
IRRWELL 
0  
END 
STRESS PERIOD 331
IRRWELL 
0  
END 
STRESS PERIOD 332
IRRWELL 
0  
END 
STRESS PERIOD 333
IRRWELL 
0  
END 
STRESS PERIOD 334
IRRWELL 
0  
END 
STRESS PERIOD 335
IRRWELL 
0  
END 
STRESS PERIOD 336
IRRWELL 
0  
END 
STRESS PERIOD 337
IRRWELL 
0  
END 
STRESS PERIOD 338
IRRWELL 
0  
END 
STRESS PERIOD 339
IRRWELL 
0  
END 
STRESS PERIOD 340
IRRWELL 
0  
END 
STRESS PERIOD 341
IRRWELL 
0  
END 
STRESS PERIOD 342
IRRWELL 
0  
END 
STRESS PERIOD 343
IRRWELL 
0  
END 
STRESS PERIOD 344
IRRWELL 
0  
END 
STRESS PERIOD 345
IRRWELL 
0  
END 
STRESS PERIOD 346
IRRWELL 
0  
END 
STRESS PERIOD 347
IRRWELL 
0  
END 
STRESS PERIOD 348
IRRWELL 
0  
END 
STRESS PERIOD 349
IRRWELL 
0  
END 
STRESS PERIOD 350
IRRWELL 
0  
END 
STRESS PERIOD 351
IRRWELL 
0  
END 
STRESS PERIOD 352
IRRWELL 
0  
END 
STRESS PERIOD 353
IRRWELL 
0  
END 
STRESS PERIOD 354
IRRWELL 
0  
END 
STRESS PERIOD 355
IRRWELL 
0  
END 
STRESS PERIOD 356
IRRWELL 
0  
END 
STRESS PERIOD 357
IRRWELL 
0  
END 
STRESS PERIOD 358
IRRWELL 
0  
END 
STRESS PERIOD 359
IRRWELL 
0  
END 
STRESS PERIOD 360
IRRWELL 
0  
END 
STRESS PERIOD 361
IRRWELL 
0  
END 
STRESS PERIOD 362
IRRWELL 
0  
END 
STRESS PERIOD 363
IRRWELL 
0  
END 
STRESS PERIOD 364
IRRWELL 
0  
END 
STRESS PERIOD 365
IRRWELL 
0  
END 
STRESS PERIOD 366
IRRWELL 
0  
END 
STRESS PERIOD 367
IRRWELL 
0  
END 
STRESS PERIOD 368
IRRWELL 
0  
END 
STRESS PERIOD 369
IRRWELL 
0  
END 
STRESS PERIOD 370
IRRWELL 
0  
END 
STRESS PERIOD 371
IRRWELL 
0  
END 
STRESS PERIOD 372
IRRWELL 
0  
END 
STRESS PERIOD 373
IRRWELL 
0  
END 
STRESS PERIOD 374
IRRWELL 
0  
END 
STRESS PERIOD 375
IRRWELL 
0  
END 
STRESS PERIOD 376
IRRWELL 
0  
END 
STRESS PERIOD 377
IRRWELL 
0  
END 
STRESS PERIOD 378
IRRWELL 
0  
END 
STRESS PERIOD 379
IRRWELL 
0  
END 
STRESS PERIOD 380
IRRWELL 
0  
END 
STRESS PERIOD 381
IRRWELL 
0  
END 
STRESS PERIOD 382
IRRWELL 
0  
END 
STRESS PERIOD 383
IRRWELL 
0  
END 
STRESS PERIOD 384
IRRWELL 
0  
END 
STRESS PERIOD 385
IRRWELL 
0  
END 
STRESS PERIOD 386
IRRWELL 
0  
END 
STRESS PERIOD 387
IRRWELL 
0  
END 
STRESS PERIOD 388
IRRWELL 
0  
END 
STRESS PERIOD 389
IRRWELL 
0  
END 
STRESS PERIOD 390
IRRWELL 
0  
END 
STRESS PERIOD 391
IRRWELL 
0  
END 
STRESS PERIOD 392
IRRWELL 
0  
END 
STRESS PERIOD 393
IRRWELL 
0  
END 
STRESS PERIOD 394
IRRWELL 
0  
END 
STRESS PERIOD 395
IRRWELL 
0  
END 
STRESS PERIOD 396
IRRWELL 
0  
END 
STRESS PERIOD 397
IRRWELL 
0  
END 
STRESS PERIOD 398
IRRWELL 
0  
END 
STRESS PERIOD 399
IRRWELL 
0  
END 
STRESS PERIOD 400
IRRWELL 
0  
END 
STRESS PERIOD 401
IRRWELL 
0  
END 
STRESS PERIOD 402
IRRWELL 
0  
END 
STRESS PERIOD 403
IRRWELL 
0  
END 
STRESS PERIOD 404
IRRWELL 
0  
END 
STRESS PERIOD 405
IRRWELL 
0  
END 
STRESS PERIOD 406
IRRWELL 
0  
END 
STRESS PERIOD 407
IRRWELL 
0  
END 
STRESS PERIOD 408
IRRWELL 
0  
END 
STRESS PERIOD 409
IRRWELL 
0  
END 
STRESS PERIOD 410
IRRWELL 
0  
END 
STRESS PERIOD 411
IRRWELL 
0  
END 
STRESS PERIOD 412
IRRWELL 
0  
END 
STRESS PERIOD 413
IRRWELL 
0  
END 
STRESS PERIOD 414
IRRWELL 
0  
END 
STRESS PERIOD 415
IRRWELL 
0  
END 
STRESS PERIOD 416
IRRWELL 
0  
END 
STRESS PERIOD 417
IRRWELL 
0  
END 
STRESS PERIOD 418
IRRWELL 
0  
END 
STRESS PERIOD 419
IRRWELL 
0  
END 
STRESS PERIOD 420
IRRWELL 
0  
END 
STRESS PERIOD 421
IRRWELL 
0  
END 
STRESS PERIOD 422
IRRWELL 
0  
END 
STRESS PERIOD 423
IRRWELL 
0  
END 
STRESS PERIOD 424
IRRWELL 
0  
END 
STRESS PERIOD 425
IRRWELL 
0  
END 
STRESS PERIOD 426
IRRWELL 
0  
END 
STRESS PERIOD 427
IRRWELL 
0  
END 
STRESS PERIOD 428
IRRWELL 
0  
END 
STRESS PERIOD 429
IRRWELL 
0  
END 
STRESS PERIOD 430
IRRWELL 
0  
END 
STRESS PERIOD 431
IRRWELL 
0  
END 
STRESS PERIOD 432
IRRWELL 
0  
END 
STRESS PERIOD 433
IRRWELL 
0  
END 
STRESS PERIOD 434
IRRWELL 
0  
END 
STRESS PERIOD 435
IRRWELL 
0  
END 
STRESS PERIOD 436
IRRWELL 
0  
END 
STRESS PERIOD 437
IRRWELL 
0  
END 
STRESS PERIOD 438
IRRWELL 
0  
END 
STRESS PERIOD 439
IRRWELL 
0  
END 
STRESS PERIOD 440
IRRWELL 
0  
END 
STRESS PERIOD 441
IRRWELL 
0  
END 
STRESS PERIOD 442
IRRWELL 
0  
END 
STRESS PERIOD 443
IRRWELL 
0  
END 
STRESS PERIOD 444
IRRWELL 
0  
END 
STRESS PERIOD 445
IRRWELL 
0  
END 
STRESS PERIOD 446
IRRWELL 
0  
END 
STRESS PERIOD 447
IRRWELL 
0  
END 
STRESS PERIOD 448
IRRWELL 
0  
END 
STRESS PERIOD 449
IRRWELL 
0  
END 
STRESS PERIOD 450
IRRWELL 
0  
END 
STRESS PERIOD 451
IRRWELL 
0  
END 
STRESS PERIOD 452
IRRWELL 
0  
END 
STRESS PERIOD 453
IRRWELL 
0  
END 
STRESS PERIOD 454
IRRWELL 
0  
END 
STRESS PERIOD 455
IRRWELL 
0  
END 
STRESS PERIOD 456
IRRWELL 
0  
END 
STRESS PERIOD 457
IRRWELL 
0  
END 
STRESS PERIOD 458
IRRWELL 
0  
END 
STRESS PERIOD 459
IRRWELL 
0  
END 
STRESS PERIOD 460
IRRWELL 
0  
END 
STRESS PERIOD 461
IRRWELL 
0  
END 
STRESS PERIOD 462
IRRWELL 
0  
END 
STRESS PERIOD 463
IRRWELL 
0  
END 
STRESS PERIOD 464
IRRWELL 
0  
END 
STRESS PERIOD 465
IRRWELL 
0  
END 
STRESS PERIOD 466
IRRWELL 
0  
END 
STRESS PERIOD 467
IRRWELL 
0  
END 
STRESS PERIOD 468
IRRWELL 
0  
END 
STRESS PERIOD 469
IRRWELL 
0  
END 
STRESS PERIOD 470
IRRWELL 
0  
END 
STRESS PERIOD 471
IRRWELL 
0  
END 
STRESS PERIOD 472
IRRWELL 
0  
END 
STRESS PERIOD 473
IRRWELL 
0  
END 
STRESS PERIOD 474
IRRWELL 
0  
END 
STRESS PERIOD 475
IRRWELL 
0  
END 
STRESS PERIOD 476
IRRWELL 
0  
END 
STRESS PERIOD 477
IRRWELL 
0  
END 
STRESS PERIOD 478
IRRWELL 
0  
END 
STRESS PERIOD 479
IRRWELL 
0  
END 
STRESS PERIOD 480
IRRWELL 
0  
END 
STRESS PERIOD 481
IRRWELL 
0  
END 
STRESS PERIOD 482
IRRWELL 
0  
END 
STRESS PERIOD 483
IRRWELL 
0  
END 
STRESS PERIOD 484
IRRWELL 
0  
END 
STRESS PERIOD 485
IRRWELL 
0  
END 
STRESS PERIOD 486
IRRWELL 
0  
END 
STRESS PERIOD 487
IRRWELL 
0  
END 
STRESS PERIOD 488
IRRWELL 
0  
END 
STRESS PERIOD 489
IRRWELL 
0  
END 
STRESS PERIOD 490
IRRWELL 
0  
END 
STRESS PERIOD 491
IRRWELL 
0  
END 
STRESS PERIOD 492
IRRWELL 
0  
END 
STRESS PERIOD 493
IRRWELL 
0  
END 
STRESS PERIOD 494
IRRWELL 
0  
END 
STRESS PERIOD 495
IRRWELL 
0  
END 
STRESS PERIOD 496
IRRWELL 
0  
END 
STRESS PERIOD 497
IRRWELL 
0  
END 
STRESS PERIOD 498
IRRWELL 
0  
END 
STRESS PERIOD 499
IRRWELL 
0  
END 
STRESS PERIOD 500
IRRWELL 
0  
END 
STRESS PERIOD 501
IRRWELL 
0  
END 
STRESS PERIOD 502
IRRWELL 
0  
END 
STRESS PERIOD 503
IRRWELL 
0  
END 
STRESS PERIOD 504
IRRWELL 
0  
END 
STRESS PERIOD 505
IRRWELL 
0  
END 
STRESS PERIOD 506
IRRWELL 
0  
END 
STRESS PERIOD 507
IRRWELL 
0  
END 
STRESS PERIOD 508
IRRWELL 
0  
END 
STRESS PERIOD 509
IRRWELL 
0  
END 
STRESS PERIOD 510
IRRWELL 
0  
END 
STRESS PERIOD 511
IRRWELL 
0  
END 
STRESS PERIOD 512
IRRWELL 
0  
END 
STRESS PERIOD 513
IRRWELL 
0  
END 
STRESS PERIOD 514
IRRWELL 
0  
END 
STRESS PERIOD 515
IRRWELL 
0  
END 
STRESS PERIOD 516
IRRWELL 
0  
END 
STRESS PERIOD 517
IRRWELL 
0  
END 
STRESS PERIOD 518
IRRWELL 
0  
END 
STRESS PERIOD 519
IRRWELL 
0  
END 
STRESS PERIOD 520
IRRWELL 
0  
END 
STRESS PERIOD 521
IRRWELL 
0  
END 
STRESS PERIOD 522
IRRWELL 
0  
END 
STRESS PERIOD 523
IRRWELL 
0  
END 
STRESS PERIOD 524
IRRWELL 
0  
END 
STRESS PERIOD 525
IRRWELL 
0  
END 
STRESS PERIOD 526
IRRWELL 
0  
END 
STRESS PERIOD 527
IRRWELL 
0  
END 
STRESS PERIOD 528
IRRWELL 
0  
END 
STRESS PERIOD 529
IRRWELL 
0  
END 
STRESS PERIOD 530
IRRWELL 
0  
END 
STRESS PERIOD 531
IRRWELL 
0  
END 
STRESS PERIOD 532
IRRWELL 
0  
END 
STRESS PERIOD 533
IRRWELL 
0  
END 
STRESS PERIOD 534
IRRWELL 
0  
END 
STRESS PERIOD 535
IRRWELL 
0  
END 
STRESS PERIOD 536
IRRWELL 
0  
END 
STRESS PERIOD 537
IRRWELL 
0  
END 
STRESS PERIOD 538
IRRWELL 
0  
END 
STRESS PERIOD 539
IRRWELL 
0  
END 
STRESS PERIOD 540
IRRWELL 
0  
END 
STRESS PERIOD 541
IRRWELL 
0  
END 
STRESS PERIOD 542
IRRWELL 
0  
END 
STRESS PERIOD 543
IRRWELL 
0  
END 
STRESS PERIOD 544
IRRWELL 
0  
END 
STRESS PERIOD 545
IRRWELL 
0  
END 
STRESS PERIOD 546
IRRWELL 
0  
END 
STRESS PERIOD 547
IRRWELL 
0  
END 
STRESS PERIOD 548
IRRWELL 
0  
END 
STRESS PERIOD 549
IRRWELL 
0  
END 
STRESS PERIOD 550
IRRWELL 
0  
END 
STRESS PERIOD 551
IRRWELL 
0  
END 
STRESS PERIOD 552
IRRWELL 
0  
END 
STRESS PERIOD 553
IRRWELL 
0  
END 
STRESS PERIOD 554
IRRWELL 
0  
END 
STRESS PERIOD 555
IRRWELL 
0  
END 
STRESS PERIOD 556
IRRWELL 
0  
END 
STRESS PERIOD 557
IRRWELL 
0  
END 
STRESS PERIOD 558
IRRWELL 
0  
END 
STRESS PERIOD 559
IRRWELL 
0  
END 
STRESS PERIOD 560
IRRWELL 
0  
END 
STRESS PERIOD 561
IRRWELL 
0  
END 
STRESS PERIOD 562
IRRWELL 
0  
END 
STRESS PERIOD 563
IRRWELL 
0  
END 
STRESS PERIOD 564
IRRWELL 
0  
END 
STRESS PERIOD 565
IRRWELL 
0  
END 
STRESS PERIOD 566
IRRWELL 
0  
END 
STRESS PERIOD 567
IRRWELL 
0  
END 
STRESS PERIOD 568
IRRWELL 
0  
END 
STRESS PERIOD 569
IRRWELL 
0  
END 
STRESS PERIOD 570
IRRWELL 
0  
END 
STRESS PERIOD 571
IRRWELL 
0  
END 
STRESS PERIOD 572
IRRWELL 
0  
END 
STRESS PERIOD 573
IRRWELL 
0  
END 
STRESS PERIOD 574
IRRWELL 
0  
END 
STRESS PERIOD 575
IRRWELL 
0  
END 
STRESS PERIOD 576
IRRWELL 
0  
END 
STRESS PERIOD 577
IRRWELL 
0  
END 
STRESS PERIOD 578
IRRWELL 
0  
END 
STRESS PERIOD 579
IRRWELL 
0  
END 
STRESS PERIOD 580
IRRWELL 
0  
END 
STRESS PERIOD 581
IRRWELL 
0  
END 
STRESS PERIOD 582
IRRWELL 
0  
END 
STRESS PERIOD 583
IRRWELL 
0  
END 
STRESS PERIOD 584
IRRWELL 
0  
END 
STRESS PERIOD 585
IRRWELL 
0  
END 
STRESS PERIOD 586
IRRWELL 
0  
END 
STRESS PERIOD 587
IRRWELL 
0  
END 
STRESS PERIOD 588
IRRWELL 
0  
END 
STRESS PERIOD 589
IRRWELL 
0  
END 
STRESS PERIOD 590
IRRWELL 
0  
END 
STRESS PERIOD 591
IRRWELL 
0  
END 
STRESS PERIOD 592
IRRWELL 
0  
END 
STRESS PERIOD 593
IRRWELL 
0  
END 
STRESS PERIOD 594
IRRWELL 
0  
END 
STRESS PERIOD 595
IRRWELL 
0  
END 
STRESS PERIOD 596
IRRWELL 
0  
END 
STRESS PERIOD 597
IRRWELL 
0  
END 
STRESS PERIOD 598
IRRWELL 
0  
END 
STRESS PERIOD 599
IRRWELL 
0  
END 
STRESS PERIOD 600
IRRWELL 
0  
END 
STRESS PERIOD 601
IRRWELL 
0  