# NWT package for  MODFLOW-NWT, generated by Flopy.
 5.000e-02 2.000e+03      300 1.000e-05         2         1         1 SPECIFIED      0.9 0.00001 0.000  0.10 0  100 1.05 0.7
         1         0         7         7         0         0         1     0.005     0.001       200
